
!CO2 Storage - symmetrical cold injection

SIMULATION
  SIMULATION_TYPE SUBSURFACE
  PROCESS_MODELS
    SUBSURFACE_FLOW Flow
      MODE GAS_WATER
      OPTIONS
         ISOTHERMAL
	 RESERVOIR_DEFAULTS
	 AVDEN
	 UPDEN
      /
    / ! end of subsurface_flow
  / ! end of process models
END  !! end simulation block

SUBSURFACE

#=========================== discretization ===================================

GRID
  TYPE grdecl ../include/TEMP_GRD.grdecl 
END

#=========================set up standard conditions ==========================

REFERENCE_PRESSURE    1.01325D5 Pa
REFERENCE_TEMPERATURE 15.0 !C

#=========================== times ============================================

TIME
 START_DATE  1 JAN 2025
! FINAL_DATE  1 JAN 2100 !NOSIM
  FINAL_DATE  1 JAN 2525
  INITIAL_TIMESTEP_SIZE 2.5 d                
  MINIMUM_TIMESTEP_SIZE 1.0D-10 d
  MAXIMUM_TIMESTEP_SIZE 1    d at 0  d 
  MAXIMUM_TIMESTEP_SIZE 5    d at 10 d 
  MAXIMUM_TIMESTEP_SIZE 10   d at 3650 d 
  MAXIMUM_TIMESTEP_SIZE 20   d at 7300 d 
  MAXIMUM_TIMESTEP_SIZE 500  d at 18250 d 
  MAXIMUM_TIMESTEP_SIZE 1000 d at 36500 d
END

#=========================== output options ===================================

OUTPUT
  MASS_BALANCE_FILE
   PERIODIC TIMESTEP 1
   WRITE_MASS_RATES 
  END
  ECLIPSE_FILE
    PERIOD_SUM TIMESTEP 1
!    TIMES d 3000 6000 10000 20000 30000 40000 60000 80000 100000 120000 140000 160000 182500
!    TIMES  y 1 2 5 10 20 30 40 50 60 70 80 90 100 150 200 250 300 400 500 1000
     TIMES y 0.25 0.5 1 2 3 4 5 6 7 8 9 10 12 14 16 18 20 25 30 35 40 45 50 100 150 200 250 300 350 400 450 475 500  
    WRITE_DENSITY
    WRITE_VISCOSITY
    OUTFILE WT
    EGRID 
   SUMMARY_D
!      BPR    130 132 12
!      BDENG  150 130 12
!      BVGAS  150 130 12
   END_SUMMARY_D
  END
 LINEREPT
END

NEWTON_SOLVER FLOW
  ITOL_S 5.0D-6
  RTOL 1.0D-20
  ITOL 1.0D-20 
  
END

#=========================== material properties ==============================

MATERIAL_PROPERTY formation
  ID 1
  TORTUOSITY 1.d0
  ROCK_DENSITY 2.350d3
  SPECIFIC_HEAT 1.0d3
  !THERMAL_CONDUCTIVITY_DRY 1.541d0
  !THERMAL_CONDUCTIVITY_WET 1.541d0
  THERMAL_CONDUCTIVITY_DRY 1.6   !saturated with CO2
  THERMAL_CONDUCTIVITY_WET 4.3   !saturated with water
  SOIL_COMPRESSIBILITY_FUNCTION QUADRATIC
  !SOIL_COMPRESSIBILITY    4.0d-10  ! 1/Pa
  !SOIL_REFERENCE_PRESSURE 1.0D6    ! Ref: 10 Bar
  SOIL_COMPRESSIBILITY    5.568d-10 ! 1/Pa
  SOIL_REFERENCE_PRESSURE 1.241D7   ! Pa
  CHARACTERISTIC_CURVES ch1
/

#=========================== saturation functions =============================

CHARACTERISTIC_CURVES ch1
 
KRW_TABLE swfn_table
 KRG_TABLE sgfn_table

 TABLE sgfn_table

  PRESSURE_UNITS Pa

  SGFN
!-- Perm region 1
!-- SATNUM 1
!-- Swi 0.3
!-- DCI1 drainage curves
!-- Sg	Krg	Pcgo
   0.00    0.00000        0.0
   0.05    0.00008        0.0
   0.10    0.00068        0.0
   0.15    0.00233        0.0
   0.20    0.00561        0.0
   0.25    0.01114        0.0
   0.30    0.01961        0.0
   0.35    0.03174        0.0
   0.40    0.04837        0.0
   0.45    0.07042        0.0
   0.50    0.09894        0.0
   0.55    0.13618        0.0
   0.60    0.18065        0.0
   0.65    0.23275        0.0
   0.70    0.30752        0.0
   0.75    0.39520        0.0
   0.80    0.50657        0.0
   0.85    0.65562        0.0
   0.90    0.95443        0.0
   1.00    1.00000        0.0 
 /

 END

 TABLE swfn_table

  PRESSURE_UNITS Pa

  SWFN
!-- Perm region 1
!-- SATNUM 1
!-- Swi 0.4
!-- DCI1 drainage curves
!-- Sw	Krw	no Pc
   0.00    0.00000	0.0
   0.05    0.00000	0.0
   0.10    0.00000	0.0
   0.15    0.00001	0.0
   0.20    0.00015	0.0
   0.25    0.00077	0.0
   0.30    0.00244	0.0
   0.35    0.00595	0.0
   0.40    0.01235	0.0
   0.45    0.02287	0.0
   0.50    0.03902	0.0
   0.55    0.06250	0.0
   0.60    0.09526	0.0
   0.65    0.13947	0.0
   0.70    0.19753	0.0
   0.75    0.27207	0.0
   0.80    0.36595	0.0
   0.85    0.48225	0.0
   0.90    0.62430	0.0
   0.95    0.79562	0.0
   1.00    1.00000  	0.0
 /

 END
END 
###############Table 2##################
CHARACTERISTIC_CURVES ch2

 KRW_TABLE swfn_table_lin
 KRG_TABLE sgfn_table_lin

 TABLE sgfn_table_lin 

  PRESSURE_UNITS Pa

  SGFN
!-- Perm region 1
!-- SATNUM 2
!-- Swi 0
!-- DCI1 drainage curves
!-- Sg	Krg	Pcgo
   0.00    0.00000        0.0
   1.00    1.00000        0.0 
 /

 END

 TABLE swfn_table_lin

  PRESSURE_UNITS Pa

  SWFN
!-- Perm region 1
!-- SATNUM 2
!-- Swi 0.0
!-- DCI1 drainage curves
!-- Sw	Krw	no Pc
   0.00    0.00000	0.0
   1.00    1.00000  	0.0
 /

 END


END

 



#=========================== EOSs=================================

EOS WATER
  SURFACE_DENSITY 1050.0 kg/m^3
END

EOS GAS
  SURFACE_DENSITY 1.871 kg/m^3
  DATABASE ../include/co2_db_new.dat
  FORMULA_WEIGHT 44.01 g/mol
END

!BRINE 0.315 MASS ! 1 ppm = 1E6 kg/kg 

#=========================== Equilibration or flow conditions ==================================

FLOW_CONDITION initial_press
  !Equilibrium with Gas/water contact not allowed. Brine only.
  TYPE
    PRESSURE hydrostatic
  /

  PRESSURE 4.85 Bar  !allow to read pressure as well
  DATUM_D 49.4  m

  GAS_IN_LIQUID_MOLE_FRACTION 0.0

  TEMPERATURE_TABLE
   D_UNITS m           !cannot be otherwise
   TEMPERATURE_UNITS C !cannot be otherwise
   external_file ../include/temperature_gradient.inc / 
  END 


! Set hypersaline in the reservoir and low salinity in OVB 

!SALT_TABLE
!    D_UNITS m
!    CONCENTRATION_UNITS MASS
!    SALTVD
!     10  0.001
!     1000 0.01
!     1750 0.20
!     3500 0.20
!    /
!END
/


#=========================== thermal aquifers =================================
#=========================== Thermal Boundaries ===============================

#=========================== Wells ==================================


WELL_DATA INJ_01
  GC_WEIGHT 1.0
  RADIUS 0.1 m
  WELL_TYPE GAS_INJECTOR
  INJECTION_ENTHALPY_P 180.0 Bar
  INJECTION_ENTHALPY_T 12 C
  BHPL 800 Bar
  DATE 1 JAN 2025
  CIJK_D    1  1   51 60  Z
  OPEN
  TARG_GSV 2928620.0  m^3/day
  DATE 1 JAN 2045
  SHUT
END





#================================================================================

END_SUBSURFACE
